 xtb: 6.6.1 (8d0f1dd)
          09122515523D

 34 47  0     0  0            999 V2000
    0.0000    1.2413   -0.8792 Se  0  0  0  0  0  0  0  0  0  0  0  0
    0.0000    1.2413    1.7525 Cd  0  0  0  0  0  0  0  0  0  0  0  0
    0.0000   -1.2413   -1.7525 Cd  0  0  0  0  0  0  0  0  0  0  0  0
    0.0000   -1.2413    2.6258 Se  0  0  0  0  0  0  0  0  0  0  0  0
   -2.1500   -2.4826   -0.8792 Se  0  0  0  0  0  0  0  0  0  0  0  0
    2.1500   -2.4826   -0.8792 Se  0  0  0  0  0  0  0  0  0  0  0  0
    2.1500   -2.4826    1.7525 Cd  0  0  0  0  0  0  0  0  0  0  0  0
   -2.1500   -2.4826    1.7525 Cd  0  0  0  0  0  0  0  0  0  0  0  0
    2.1500    2.4826   -1.7525 Cd  0  0  0  0  0  0  0  0  0  0  0  0
   -2.1500    2.4826   -1.7525 Cd  0  0  0  0  0  0  0  0  0  0  0  0
   -2.1500    2.4826    2.6258 Se  0  0  0  0  0  0  0  0  0  0  0  0
    2.1500    2.4826    2.6258 Se  0  0  0  0  0  0  0  0  0  0  0  0
    4.3000    1.2413   -0.8792 Se  0  0  0  0  0  0  0  0  0  0  0  0
   -4.3000    1.2413   -0.8792 Se  0  0  0  0  0  0  0  0  0  0  0  0
    4.3000    1.2413    1.7525 Cd  0  0  0  0  0  0  0  0  0  0  0  0
   -4.3000    1.2413    1.7525 Cd  0  0  0  0  0  0  0  0  0  0  0  0
    0.0000   -1.2413   -4.3842 Se  0  0  0  0  0  0  0  0  0  0  0  0
    4.3000   -1.2413   -1.7525 Cd  0  0  0  0  0  0  0  0  0  0  0  0
   -4.3000   -1.2413   -1.7525 Cd  0  0  0  0  0  0  0  0  0  0  0  0
    4.3000   -1.2413    2.6258 Se  0  0  0  0  0  0  0  0  0  0  0  0
   -4.3000   -1.2413    2.6258 Se  0  0  0  0  0  0  0  0  0  0  0  0
    0.0000   -1.2413    5.2575 Cd  0  0  0  0  0  0  0  0  0  0  0  0
    2.1500    4.9652   -0.8792 Se  0  0  0  0  0  0  0  0  0  0  0  0
   -2.1500    4.9652   -0.8792 Se  0  0  0  0  0  0  0  0  0  0  0  0
   -2.1500    4.9652    1.7525 Cd  0  0  0  0  0  0  0  0  0  0  0  0
    2.1500    4.9652    1.7525 Cd  0  0  0  0  0  0  0  0  0  0  0  0
    0.0000    1.2413   -5.2575 Cd  0  0  0  0  0  0  0  0  0  0  0  0
    2.1500    2.4826   -4.3842 Se  0  0  0  0  0  0  0  0  0  0  0  0
   -2.1500    2.4826   -4.3842 Se  0  0  0  0  0  0  0  0  0  0  0  0
   -2.1500   -4.9652   -1.7525 Cd  0  0  0  0  0  0  0  0  0  0  0  0
    2.1500   -4.9652   -1.7525 Cd  0  0  0  0  0  0  0  0  0  0  0  0
    2.1500   -4.9652    2.6258 Se  0  0  0  0  0  0  0  0  0  0  0  0
   -2.1500   -4.9652    2.6258 Se  0  0  0  0  0  0  0  0  0  0  0  0
   -2.1500    2.4826    5.2575 Cd  0  0  0  0  0  0  0  0  0  0  0  0
  1  2  1  0  0  0  0
  1  3  1  0  0  0  0
  2  4  1  0  0  0  0
  3  5  1  0  0  0  0
  3  6  1  0  0  0  0
  4  7  1  0  0  0  0
  6  7  1  0  0  0  0
  4  8  1  0  0  0  0
  5  8  1  0  0  0  0
  1  9  1  0  0  0  0
  1 10  1  0  0  0  0
  2 11  1  0  0  0  0
  2 12  1  0  0  0  0
  9 13  1  0  0  0  0
 10 14  1  0  0  0  0
 12 15  1  0  0  0  0
 13 15  1  0  0  0  0
 11 16  1  0  0  0  0
 14 16  1  0  0  0  0
  3 17  1  0  0  0  0
  6 18  1  0  0  0  0
 13 18  1  0  0  0  0
  5 19  1  0  0  0  0
 14 19  1  0  0  0  0
  7 20  1  0  0  0  0
 15 20  1  0  0  0  0
  8 21  1  0  0  0  0
 16 21  1  0  0  0  0
  4 22  1  0  0  0  0
  9 23  1  0  0  0  0
 10 24  1  0  0  0  0
 11 25  1  0  0  0  0
 24 25  1  0  0  0  0
 12 26  1  0  0  0  0
 23 26  1  0  0  0  0
 17 27  1  0  0  0  0
  9 28  1  0  0  0  0
 27 28  1  0  0  0  0
 10 29  1  0  0  0  0
 27 29  1  0  0  0  0
  5 30  1  0  0  0  0
  6 31  1  0  0  0  0
  7 32  1  0  0  0  0
  8 33  1  0  0  0  0
 32 33  1  0  0  0  0
 11 34  1  0  0  0  0
 22 34  1  0  0  0  0
M  END
