184
CdSe quantum dot, diameter=2.5 nm
Cd     -3.225000000000000     -4.344560775651934     -9.199139919163102
Se     -3.225000000000000     -6.827166933167325     -8.325860080836900
Cd     -3.225000000000000     -6.827166933167325     -5.694139919163101
Se     -3.225000000000000     -4.344560775651934     -4.820860080836900
Cd     -3.225000000000000     -4.344560775651934     -2.189139919163100
Se     -3.225000000000000     -6.827166933167325     -1.315860080836901
Cd     -3.225000000000000     -6.827166933167325      1.315860080836899
Se     -3.225000000000000     -4.344560775651934      2.189139919163100
Cd     -3.225000000000000     -4.344560775651934      4.820860080836898
Se     -3.225000000000000     -6.827166933167325      5.694139919163099
Cd     -3.225000000000000     -6.827166933167325      8.325860080836900
Se     -3.225000000000000     -4.344560775651934      9.199139919163102
Cd     -5.375000000000000     -0.620651539378848     -9.199139919163102
Se     -5.375000000000000     -3.103257696894239     -8.325860080836900
Cd     -5.375000000000000     -3.103257696894239     -5.694139919163101
Se     -5.375000000000000     -0.620651539378848     -4.820860080836900
Cd     -5.375000000000000     -0.620651539378848     -2.189139919163100
Se     -5.375000000000000     -3.103257696894239     -1.315860080836901
Cd     -5.375000000000000     -3.103257696894239      1.315860080836899
Se     -5.375000000000000     -0.620651539378848      2.189139919163100
Cd     -5.375000000000000     -0.620651539378848      4.820860080836898
Se     -5.375000000000000     -3.103257696894239      5.694139919163099
Cd     -5.375000000000000     -3.103257696894239      8.325860080836900
Se     -5.375000000000000     -0.620651539378848      9.199139919163102
Cd     -7.524999999999999      3.103257696894238     -9.199139919163102
Se     -7.524999999999999      0.620651539378847     -8.325860080836900
Cd     -7.524999999999999      0.620651539378847     -5.694139919163101
Se     -7.524999999999999      3.103257696894238     -4.820860080836900
Cd     -7.524999999999999      3.103257696894238     -2.189139919163100
Se     -7.524999999999999      0.620651539378847     -1.315860080836901
Cd     -7.524999999999999      0.620651539378847      1.315860080836899
Se     -7.524999999999999      3.103257696894238      2.189139919163100
Cd     -7.524999999999999      3.103257696894238      4.820860080836898
Se     -7.524999999999999      0.620651539378847      5.694139919163099
Cd     -7.524999999999999      0.620651539378847      8.325860080836900
Se     -7.524999999999999      3.103257696894238      9.199139919163102
Cd     -9.674999999999999      4.344560775651933     -5.694139919163101
Cd     -9.674999999999999      6.827166933167325     -2.189139919163100
Se     -9.674999999999999      4.344560775651933     -1.315860080836901
Cd     -9.674999999999999      4.344560775651933      1.315860080836899
Se     -9.674999999999999      6.827166933167325      2.189139919163100
Se     -9.674999999999999      4.344560775651933      5.694139919163099
Cd      1.075000000000000     -4.344560775651934     -9.199139919163102
Se      1.075000000000000     -6.827166933167325     -8.325860080836900
Cd      1.075000000000000     -6.827166933167325     -5.694139919163101
Se      1.075000000000000     -4.344560775651934     -4.820860080836900
Cd      1.075000000000000     -4.344560775651934     -2.189139919163100
Se      1.075000000000000     -6.827166933167325     -1.315860080836901
Cd      1.075000000000000     -6.827166933167325      1.315860080836899
Se      1.075000000000000     -4.344560775651934      2.189139919163100
Cd      1.075000000000000     -4.344560775651934      4.820860080836898
Se      1.075000000000000     -6.827166933167325      5.694139919163099
Cd      1.075000000000000     -6.827166933167325      8.325860080836900
Se      1.075000000000000     -4.344560775651934      9.199139919163102
Se     -1.075000000000000     -0.620651539378848    -11.830860080836899
Cd     -1.075000000000000     -0.620651539378848     -9.199139919163102
Se     -1.075000000000000     -3.103257696894239     -8.325860080836900
Cd     -1.075000000000000     -3.103257696894239     -5.694139919163101
Se     -1.075000000000000     -0.620651539378848     -4.820860080836900
Cd     -1.075000000000000     -0.620651539378848     -2.189139919163100
Se     -1.075000000000000     -3.103257696894239     -1.315860080836901
Cd     -1.075000000000000     -3.103257696894239      1.315860080836899
Se     -1.075000000000000     -0.620651539378848      2.189139919163100
Cd     -1.075000000000000     -0.620651539378848      4.820860080836898
Se     -1.075000000000000     -3.103257696894239      5.694139919163099
Cd     -1.075000000000000     -3.103257696894239      8.325860080836900
Se     -1.075000000000000     -0.620651539378848      9.199139919163102
Cd     -1.075000000000000     -0.620651539378848     11.830860080836899
Cd     -3.225000000000000      3.103257696894238     -9.199139919163102
Se     -3.225000000000000      0.620651539378847     -8.325860080836900
Cd     -3.225000000000000      0.620651539378847     -5.694139919163101
Se     -3.225000000000000      3.103257696894238     -4.820860080836900
Cd     -3.225000000000000      3.103257696894238     -2.189139919163100
Se     -3.225000000000000      0.620651539378847     -1.315860080836901
Cd     -3.225000000000000      0.620651539378847      1.315860080836899
Se     -3.225000000000000      3.103257696894238      2.189139919163100
Cd     -3.225000000000000      3.103257696894238      4.820860080836898
Se     -3.225000000000000      0.620651539378847      5.694139919163099
Cd     -3.225000000000000      0.620651539378847      8.325860080836900
Se     -3.225000000000000      3.103257696894238      9.199139919163102
Se     -5.374999999999999      4.344560775651933     -8.325860080836900
Cd     -5.374999999999999      4.344560775651933     -5.694139919163101
Se     -5.374999999999999      6.827166933167325     -4.820860080836900
Cd     -5.374999999999999      6.827166933167325     -2.189139919163100
Se     -5.374999999999999      4.344560775651933     -1.315860080836901
Cd     -5.374999999999999      4.344560775651933      1.315860080836899
Se     -5.374999999999999      6.827166933167325      2.189139919163100
Cd     -5.374999999999999      6.827166933167325      4.820860080836898
Se     -5.374999999999999      4.344560775651933      5.694139919163099
Cd     -5.374999999999999      4.344560775651933      8.325860080836900
Cd      5.375000000000000     -4.344560775651934     -9.199139919163102
Se      5.375000000000000     -6.827166933167325     -8.325860080836900
Cd      5.375000000000000     -6.827166933167325     -5.694139919163101
Se      5.375000000000000     -4.344560775651934     -4.820860080836900
Cd      5.375000000000000     -4.344560775651934     -2.189139919163100
Se      5.375000000000000     -6.827166933167325     -1.315860080836901
Cd      5.375000000000000     -6.827166933167325      1.315860080836899
Se      5.375000000000000     -4.344560775651934      2.189139919163100
Cd      5.375000000000000     -4.344560775651934      4.820860080836898
Se      5.375000000000000     -6.827166933167325      5.694139919163099
Cd      5.375000000000000     -6.827166933167325      8.325860080836900
Se      5.375000000000000     -4.344560775651934      9.199139919163102
Se      3.225000000000000     -0.620651539378848    -11.830860080836899
Cd      3.225000000000000     -0.620651539378848     -9.199139919163102
Se      3.225000000000000     -3.103257696894239     -8.325860080836900
Cd      3.225000000000000     -3.103257696894239     -5.694139919163101
Se      3.225000000000000     -0.620651539378848     -4.820860080836900
Cd      3.225000000000000     -0.620651539378848     -2.189139919163100
Se      3.225000000000000     -3.103257696894239     -1.315860080836901
Cd      3.225000000000000     -3.103257696894239      1.315860080836899
Se      3.225000000000000     -0.620651539378848      2.189139919163100
Cd      3.225000000000000     -0.620651539378848      4.820860080836898
Se      3.225000000000000     -3.103257696894239      5.694139919163099
Cd      3.225000000000000     -3.103257696894239      8.325860080836900
Se      3.225000000000000     -0.620651539378848      9.199139919163102
Cd      3.225000000000000     -0.620651539378848     11.830860080836899
Se      1.075000000000000      3.103257696894238    -11.830860080836899
Cd      1.075000000000000      3.103257696894238     -9.199139919163102
Se      1.075000000000000      0.620651539378847     -8.325860080836900
Cd      1.075000000000000      0.620651539378847     -5.694139919163101
Se      1.075000000000000      3.103257696894238     -4.820860080836900
Cd      1.075000000000000      3.103257696894238     -2.189139919163100
Se      1.075000000000000      0.620651539378847     -1.315860080836901
Cd      1.075000000000000      0.620651539378847      1.315860080836899
Se      1.075000000000000      3.103257696894238      2.189139919163100
Cd      1.075000000000000      3.103257696894238      4.820860080836898
Se      1.075000000000000      0.620651539378847      5.694139919163099
Cd      1.075000000000000      0.620651539378847      8.325860080836900
Se      1.075000000000000      3.103257696894238      9.199139919163102
Cd      1.075000000000000      3.103257696894238     11.830860080836899
Cd     -1.074999999999999      6.827166933167325     -9.199139919163102
Se     -1.074999999999999      4.344560775651933     -8.325860080836900
Cd     -1.074999999999999      4.344560775651933     -5.694139919163101
Se     -1.074999999999999      6.827166933167325     -4.820860080836900
Cd     -1.074999999999999      6.827166933167325     -2.189139919163100
Se     -1.074999999999999      4.344560775651933     -1.315860080836901
Cd     -1.074999999999999      4.344560775651933      1.315860080836899
Se     -1.074999999999999      6.827166933167325      2.189139919163100
Cd     -1.074999999999999      6.827166933167325      4.820860080836898
Se     -1.074999999999999      4.344560775651933      5.694139919163099
Cd     -1.074999999999999      4.344560775651933      8.325860080836900
Se     -1.074999999999999      6.827166933167325      9.199139919163102
Se      9.674999999999999     -4.344560775651934     -4.820860080836900
Cd      9.674999999999999     -4.344560775651934     -2.189139919163100
Se      9.674999999999999     -6.827166933167325     -1.315860080836901
Cd      9.674999999999999     -6.827166933167325      1.315860080836899
Se      9.674999999999999     -4.344560775651934      2.189139919163100
Cd      9.674999999999999     -4.344560775651934      4.820860080836898
Cd      7.524999999999999     -0.620651539378848     -9.199139919163102
Se      7.524999999999999     -3.103257696894239     -8.325860080836900
Cd      7.524999999999999     -3.103257696894239     -5.694139919163101
Se      7.524999999999999     -0.620651539378848     -4.820860080836900
Cd      7.524999999999999     -0.620651539378848     -2.189139919163100
Se      7.524999999999999     -3.103257696894239     -1.315860080836901
Cd      7.524999999999999     -3.103257696894239      1.315860080836899
Se      7.524999999999999     -0.620651539378848      2.189139919163100
Cd      7.524999999999999     -0.620651539378848      4.820860080836898
Se      7.524999999999999     -3.103257696894239      5.694139919163099
Cd      7.524999999999999     -3.103257696894239      8.325860080836900
Se      7.524999999999999     -0.620651539378848      9.199139919163102
Cd      5.374999999999998      3.103257696894238     -9.199139919163102
Se      5.374999999999998      0.620651539378847     -8.325860080836900
Cd      5.374999999999998      0.620651539378847     -5.694139919163101
Se      5.374999999999998      3.103257696894238     -4.820860080836900
Cd      5.374999999999998      3.103257696894238     -2.189139919163100
Se      5.374999999999998      0.620651539378847     -1.315860080836901
Cd      5.374999999999998      0.620651539378847      1.315860080836899
Se      5.374999999999998      3.103257696894238      2.189139919163100
Cd      5.374999999999998      3.103257696894238      4.820860080836898
Se      5.374999999999998      0.620651539378847      5.694139919163099
Cd      5.374999999999998      0.620651539378847      8.325860080836900
Se      5.374999999999998      3.103257696894238      9.199139919163102
Cd      3.225000000000000      6.827166933167325     -9.199139919163102
Se      3.225000000000000      4.344560775651933     -8.325860080836900
Cd      3.225000000000000      4.344560775651933     -5.694139919163101
Se      3.225000000000000      6.827166933167325     -4.820860080836900
Cd      3.225000000000000      6.827166933167325     -2.189139919163100
Se      3.225000000000000      4.344560775651933     -1.315860080836901
Cd      3.225000000000000      4.344560775651933      1.315860080836899
Se      3.225000000000000      6.827166933167325      2.189139919163100
Cd      3.225000000000000      6.827166933167325      4.820860080836898
Se      3.225000000000000      4.344560775651933      5.694139919163099
Cd      3.225000000000000      4.344560775651933      8.325860080836900
Se      3.225000000000000      6.827166933167325      9.199139919163102
