56
CdSe quantum dot
Cd    -1.234     0.000     0.000
Se     1.234     0.000     0.000
Cd     0.000    -1.234     0.000
Se     0.000     1.234     0.000
Cd     0.000     0.000    -1.234
Se     0.000     0.000     1.234
Cd    -2.468     0.000     0.000
Se     2.468     0.000     0.000
Cd     0.000    -2.468     0.000
Se     0.000     2.468     0.000
Cd     0.000     0.000    -2.468
Se     0.000     0.000     2.468
Cd    -1.234    -1.234     0.000
Se     1.234     1.234     0.000
Cd    -1.234     1.234     0.000
Se     1.234    -1.234     0.000
Cd    -1.234     0.000    -1.234
Se     1.234     0.000     1.234
Cd    -1.234     0.000     1.234
Se     1.234     0.000    -1.234
Cd     0.000    -1.234    -1.234
Se     0.000     1.234     1.234
Cd     0.000    -1.234     1.234
Se     0.000     1.234    -1.234
Cd    -1.745    -1.745    -1.745
Se     1.745     1.745     1.745
Cd    -1.745    -1.745     1.745
Se     1.745     1.745    -1.745
Cd    -1.745     1.745    -1.745
Se     1.745    -1.745     1.745
Cd     1.745    -1.745    -1.745
Se    -1.745     1.745     1.745
Cd    -2.468    -1.234     0.000
Se     2.468     1.234     0.000
Cd    -2.468     1.234     0.000
Se     2.468    -1.234     0.000
Cd    -1.234    -2.468     0.000
Se     1.234     2.468     0.000
Cd     1.234    -2.468     0.000
Se    -1.234     2.468     0.000
Cd    -2.468     0.000    -1.234
Se     2.468     0.000     1.234
Cd    -2.468     0.000     1.234
Se     2.468     0.000    -1.234
Cd    -1.234     0.000    -2.468
Se     1.234     0.000     2.468
Cd     1.234     0.000    -2.468
Se    -1.234     0.000     2.468
Cd     0.000    -2.468    -1.234
Se     0.000     2.468     1.234
Cd     0.000    -2.468     1.234
Se     0.000     2.468    -1.234
Cd     0.000    -1.234    -2.468
Se     0.000     1.234     2.468
Cd     0.000     1.234    -2.468
Se     0.000    -1.234     2.468
